[Format]      =  4.0
[Frequency]   =  0
[Precision]   =  1e-008
[MinAngle]    =  30
[DoSmartMesh] =  1
[Depth]       =  4.6399999999999997
[LengthUnits] =  centimeters
[ProblemType] =  planar
[Coordinates] =  cartesian
[ACSolver]    =  0
[PrevType]    =  0
[PrevSoln]    =  ""
[Comment]     =  "Add comments here."
[PointProps]   = 0
[BdryProps]   = 1
  <BeginBdry>
    <BdryName> = "B = 0"
    <BdryType> = 0
    <A_0> = 0
    <A_1> = 0
    <A_2> = 0
    <Phi> = 0
    <c0> = 0
    <c0i> = 0
    <c1> = 0
    <c1i> = 0
    <Mu_ssd> = 0
    <Sigma_ssd> = 0
    <innerangle> = 0
    <outerangle> = 0
  <EndBdry>
[BlockProps]  = 4
  <BeginBlock>
    <BlockName> = "N30"
    <Mu_x> = 1.05
    <Mu_y> = 1.05
    <H_c> = 836420
    <H_cAngle> = 0
    <J_re> = 0
    <J_im> = 0
    <Sigma> = 0.66700000000000004
    <d_lam> = 0
    <Phi_h> = 0
    <Phi_hx> = 0
    <Phi_hy> = 0
    <LamType> = 0
    <LamFill> = 1
    <NStrands> = 0
    <WireD> = 0
    <BHPoints> = 0
  <EndBlock>
  <BeginBlock>
    <BlockName> = "Air"
    <Mu_x> = 1
    <Mu_y> = 1
    <H_c> = 0
    <H_cAngle> = 0
    <J_re> = 0
    <J_im> = 0
    <Sigma> = 0
    <d_lam> = 0
    <Phi_h> = 0
    <Phi_hx> = 0
    <Phi_hy> = 0
    <LamType> = 0
    <LamFill> = 1
    <NStrands> = 0
    <WireD> = 0
    <BHPoints> = 0
  <EndBlock>
  <BeginBlock>
    <BlockName> = "US Steel Type 2-S 0.018 inch thickness"
    <Mu_x> = 9400
    <Mu_y> = 9400
    <H_c> = 0
    <H_cAngle> = 0
    <J_re> = 0
    <J_im> = 0
    <Sigma> = 6.25
    <d_lam> = 0.4572
    <Phi_h> = 0
    <Phi_hx> = 0
    <Phi_hy> = 0
    <LamType> = 0
    <LamFill> = 0.97999999999999998
    <NStrands> = 0
    <WireD> = 0
    <BHPoints> = 57
      0	0
      0.0044450000000000002	9.5103069999999992
      0.0058190000000000004	11.21247
      0.0071929999999999997	13.219414
      0.0085679999999999992	15.585253
      0.012898	18.371262000000002
      0.017228	21.656220999999999
      0.027470000000000001	25.5213
      0.046579000000000002	30.061992
      0.092288999999999996	35.364241
      0.22076000000000001	41.430433999999998
      0.4113	48.386302999999998
      0.60185	56.510370000000002
      0.77170000000000005	66.066035999999997
      0.91495000000000004	77.340575999999999
      1.0464	90.591025999999999
      1.1600999999999999	106.21208900000001
      1.2619	124.594492
      1.3431	146.31119100000001
      1.3947000000000001	172.06246999999999
      1.4286000000000001	202.52473699999999
      1.4507000000000001	238.525598
      1.4668000000000001	281.01202599999999
      1.4830000000000001	331.05831499999999
      1.4932000000000001	390.144609
      1.5064	459.69534399999998
      1.5166999999999999	541.73178900000005
      1.5268999999999999	638.41049399999997
      1.5371999999999999	752.33364300000005
      1.5474000000000001	886.57292700000005
      1.5576000000000001	1044.772997
      1.5679000000000001	1231.22308
      1.5840000000000001	1450.5386699999999
      1.5972	1709.1655450000001
      1.6104000000000001	2013.867792
      1.6266	2372.5235849999999
      1.6427	2795.1596880000002
      1.6589	3292.9965269999998
      1.6779999999999999	3878.9256599999999
      1.6971000000000001	4569.1013169999997
      1.7161999999999999	5382.0650580000001
      1.7353000000000001	6339.7006929999998
      1.7604	7465.5631620000004
      1.7854000000000001	8791.7222000000002
      1.8104	10352.236975
      1.8384	12188.885675
      1.8723000000000001	14347.823249999999
      1.9060999999999999	16887.93705
      1.9459	19872.0933
      1.9886999999999999	23380.665274999999
      2.0344000000000002	27504.371325
      2.0741999999999998	32364.965025000001
      2.1080999999999999	38095.340799999998
      2.1389999999999998	44847.491674999997
      2.1610999999999998	52819.565625000003
      2.1772	62227.217675
      2.1903999999999999	73321.116949999996
  <EndBlock>
  <BeginBlock>
    <BlockName> = "Bobine"
    <Mu_x> = 1
    <Mu_y> = 1
    <H_c> = 0
    <H_cAngle> = 0
    <J_re> = 0
    <J_im> = 0
    <Sigma> = 0
    <d_lam> = 0
    <Phi_h> = 0
    <Phi_hx> = 0
    <Phi_hy> = 0
    <LamType> = 0
    <LamFill> = 1
    <NStrands> = 0
    <WireD> = 0
    <BHPoints> = 0
  <EndBlock>
[CircuitProps]  = 3
  <BeginCircuit>
    <CircuitName> = "A"
    <TotalAmps_re> = 0
    <TotalAmps_im> = 0
    <CircuitType> = 1
  <EndCircuit>
  <BeginCircuit>
    <CircuitName> = "B"
    <TotalAmps_re> = 0
    <TotalAmps_im> = 0
    <CircuitType> = 1
  <EndCircuit>
  <BeginCircuit>
    <CircuitName> = "C"
    <TotalAmps_re> = 0
    <TotalAmps_im> = 0
    <CircuitType> = 1
  <EndCircuit>
[NumPoints] = 99
4.4081188490303349	0.4633119605875472	0	1
4.5209999999999999	0	0	0
3.5574048197323136	0.37389831310839644	0	1
-4.5209999999999999	0	0	0
1.8028194967691773	4.0491988864550645	0	1
1.4548969722821379	3.2677521019875835	0	1
-2.6052993522611567	3.5858869258675177	0	1
-2.1025078474501755	2.8938537888791873	0	1
-4.4081188490303349	-0.46331196058754665	0	1
-3.5574048197323136	-0.373898313108396	0	1
-1.8028194967691789	-4.0491988864550637	0	1
-1.454896972282139	-3.267752101987583	0	1
2.6052993522611585	-3.5858869258675172	0	1
2.1025078474501764	-2.8938537888791869	0	1
5.4029999999999996	0	0	0
-5.4029999999999996	0	0	0
4.4523158513681924	0.78506341123219203	0	0
5.3209162895249591	0.93822110393442448	0	0
4.2483503385730916	1.5462730679753482	0	0
5.0771592301062629	1.847934834388588	0	0
3.9153008505094475	2.2604999999999995	0	0
4.6791352566473217	2.7014999999999993	0	0
3.4632869273408997	2.9060427833928437	0	0
4.1389381261718379	3.4729814551363711	0	0
2.9060427833928446	3.4632869273408997	0	0
3.472981455136372	4.1389381261718379	0	0
2.2605000000000004	3.9153008505094467	0	0
2.7015000000000002	4.6791352566473217	0	0
1.5462730679753487	4.2483503385730916	0	0
1.8479348343885884	5.077159230106262	0	0
0.78506341123219237	4.4523158513681924	0	0
0.93822110393442493	5.3209162895249591	0	0
2.768314089472592e-016	4.5209999999999999	0	0
3.3083833278965742e-016	5.4029999999999996	0	0
-0.78506341123219192	4.4523158513681924	0	0
-0.93822110393442437	5.3209162895249591	0	0
-1.5462730679753482	4.2483503385730916	0	0
-1.847934834388588	5.0771592301062629	0	0
-2.2604999999999991	3.9153008505094475	0	0
-2.7014999999999985	4.6791352566473217	0	0
-2.9060427833928446	3.4632869273408997	0	0
-3.472981455136372	4.1389381261718379	0	0
-3.4632869273408988	2.9060427833928451	0	0
-4.138938126171837	3.4729814551363725	0	0
-3.9153008505094475	2.2604999999999995	0	0
-4.6791352566473217	2.7014999999999993	0	0
-4.2483503385730916	1.5462730679753489	0	0
-5.077159230106262	1.8479348343885889	0	0
-4.4523158513681924	0.78506341123219181	0	0
-5.3209162895249591	0.93822110393442426	0	0
-4.4523158513681924	-0.78506341123219259	0	0
-5.3209162895249591	-0.93822110393442526	0	0
-4.2483503385730916	-1.546273067975348	0	0
-5.0771592301062629	-1.8479348343885875	0	0
-3.9153008505094467	-2.2605000000000004	0	0
-4.6791352566473217	-2.7015000000000002	0	0
-3.4632869273408997	-2.9060427833928437	0	0
-4.1389381261718379	-3.4729814551363711	0	0
-2.9060427833928451	-3.4632869273408988	0	0
-3.4729814551363725	-4.138938126171837	0	0
-2.2605000000000022	-3.9153008505094458	0	0
-2.701500000000002	-4.6791352566473199	0	0
-1.5462730679753511	-4.2483503385730907	0	0
-1.8479348343885915	-5.077159230106262	0	0
-0.78506341123219203	-4.4523158513681924	0	0
-0.93822110393442448	-5.3209162895249591	0	0
-8.3049422684177746e-016	-4.5209999999999999	0	0
-9.9251499836897221e-016	-5.4029999999999996	0	0
0.78506341123219037	-4.4523158513681933	0	0
0.9382211039344226	-5.32091628952496	0	0
1.5462730679753458	-4.2483503385730925	0	0
1.8479348343885849	-5.0771592301062638	0	0
2.2605000000000004	-3.9153008505094467	0	0
2.7015000000000002	-4.6791352566473217	0	0
2.9060427833928437	-3.4632869273409002	0	0
3.4729814551363711	-4.1389381261718388	0	0
3.4632869273408984	-2.9060427833928455	0	0
4.138938126171837	-3.4729814551363729	0	0
3.9153008505094458	-2.2605000000000022	0	0
4.6791352566473199	-2.701500000000002	0	0
4.2483503385730916	-1.5462730679753478	0	0
5.0771592301062629	-1.8479348343885873	0	0
4.4523158513681915	-0.78506341123219625	0	0
5.3209162895249591	-0.93822110393442959	0	0
3.5682866077793913	0.24951890658273623	0	1
4.4216028963716454	0.30918859422346096	0	1
4.4202963396601156	0.30909723087800023	0	0
1.5680535920645304	3.2149863036121205	0	1
1.9430362710279074	3.9838147308164285	0	1
-2.0002330157148607	2.9654673970293843	0	1
-2.4785666253437375	3.6746261365929676	0	1
-3.5682866077793913	-0.24951890658273579	0	1
-4.4216028963716454	-0.3091885942234604	0	1
-1.5680535920645315	-3.21498630361212	0	1
-1.9430362710279088	-3.9838147308164276	0	1
2.0002330157148616	-2.9654673970293839	0	1
2.4785666253437393	-3.6746261365929671	0	1
6.1929999999999996	0	0	0
-6.1929999999999996	0	0	0
[NumSegments] = 49
2	0	-1	0	0	1
5	4	-1	0	0	1
7	6	-1	0	0	1
9	8	-1	0	0	1
11	10	-1	0	0	1
13	12	-1	0	0	1
1	14	-1	0	0	0
16	17	-1	0	0	0
18	19	-1	0	0	0
20	21	-1	0	0	0
22	23	-1	0	0	0
24	25	-1	0	0	0
26	27	-1	0	0	0
28	29	-1	0	0	0
30	31	-1	0	0	0
32	33	-1	0	0	0
34	35	-1	0	0	0
36	37	-1	0	0	0
38	39	-1	0	0	0
40	41	-1	0	0	0
42	43	-1	0	0	0
44	45	-1	0	0	0
46	47	-1	0	0	0
48	49	-1	0	0	0
3	15	-1	0	0	0
50	51	-1	0	0	0
52	53	-1	0	0	0
54	55	-1	0	0	0
56	57	-1	0	0	0
58	59	-1	0	0	0
60	61	-1	0	0	0
62	63	-1	0	0	0
64	65	-1	0	0	0
66	67	-1	0	0	0
68	69	-1	0	0	0
70	71	-1	0	0	0
72	73	-1	0	0	0
74	75	-1	0	0	0
76	77	-1	0	0	0
78	79	-1	0	0	0
80	81	-1	0	0	0
82	83	-1	0	0	0
84	86	-1	0	0	1
86	85	-1	0	0	1
87	88	-1	0	0	1
89	90	-1	0	0	1
91	92	-1	0	0	1
93	94	-1	0	0	1
95	96	-1	0	0	1
[NumArcSegments] = 80
2	87	57.999999999999993	1	0	0	1	1
87	5	2.0000000000000004	1	0	0	1	1
5	89	58	1	0	0	1	1
89	7	1.9999999999999938	1	0	0	1	1
7	91	58.000000000000021	1	0	0	1	1
91	9	1.9999999999999998	1	0	0	1	1
9	93	57.999999999999986	1	0	0	1	1
93	11	2.0000000000000004	1	0	0	1	1
11	95	58.00000000000005	1	0	0	1	1
95	13	2	1	0	0	1	1
13	84	57.999999999999993	1	0	0	1	1
84	2	1.9999999999999991	1	0	0	1	1
0	88	57.999999999999993	1	0	0	1	1
88	4	2.0000000000000004	1	0	0	1	1
4	90	57.999999999999993	1	0	0	1	1
90	6	2.0000000000000004	1	0	0	1	1
6	92	58.000000000000021	1	0	0	1	1
92	8	2.0000000000000009	1	0	0	1	1
8	94	57.999999999999986	1	0	0	1	1
94	10	1.9999999999999978	1	0	0	1	1
10	96	58.000000000000021	1	0	0	1	1
96	12	1.9999999999999971	1	0	0	1	1
12	86	58.029929073600648	1	0	0	1	1
86	0	1.9700709263993279	1	0	0	1	1
1	16	10	1	0	0	0	1
16	18	10	1	0	0	0	1
18	20	9.9999999999999929	1	0	0	0	1
20	22	10.000000000000005	1	0	0	0	1
22	24	10.000000000000004	1	0	0	0	1
24	26	10.000000000000004	1	0	0	0	1
26	28	10.000000000000005	1	0	0	0	1
28	30	10.000000000000005	1	0	0	0	1
30	32	10.000000000000005	1	0	0	0	1
32	34	10.000000000000004	1	0	0	0	1
34	36	10.000000000000004	1	0	0	0	1
36	38	9.9999999999999858	1	0	0	0	1
38	40	10.000000000000016	1	0	0	0	1
40	42	9.9999999999999822	1	0	0	0	1
42	44	10.00000000000002	1	0	0	0	1
44	46	9.999999999999984	1	0	0	0	1
46	48	10.000000000000005	1	0	0	0	1
48	3	9.9999999999999893	1	0	0	0	1
3	50	10.000000000000005	1	0	0	0	1
50	52	9.9999999999999893	1	0	0	0	1
52	54	10.000000000000016	1	0	0	0	1
54	56	9.999999999999984	1	0	0	0	1
56	58	9.9999999999999876	1	0	0	0	1
58	60	9.999999999999984	1	0	0	0	1
60	62	9.9999999999999964	1	0	0	0	1
62	64	10.000000000000046	1	0	0	0	1
64	66	9.9999999999999929	1	0	0	0	1
66	68	9.9999999999999893	1	0	0	0	1
68	70	9.9999999999999893	1	0	0	0	1
70	72	10.000000000000046	1	0	0	0	1
72	74	9.9999999999999876	1	0	0	0	1
74	76	9.9999999999999893	1	0	0	0	1
76	78	9.9999999999999929	1	0	0	0	1
78	80	10.000000000000041	1	0	0	0	1
80	82	9.9999999999999432	1	0	0	0	1
82	1	10.00000000000006	1	0	0	0	1
14	17	10	1	0	0	0	1
19	21	9.9999999999999982	1	0	0	0	1
23	25	10.000000000000007	1	0	0	0	1
27	29	10	1	0	0	0	1
31	33	10.000000000000007	1	0	0	0	1
35	37	10.000000000000007	1	0	0	0	1
39	41	10.00000000000003	1	0	0	0	1
43	45	10.00000000000003	1	0	0	0	1
47	49	10.000000000000028	1	0	0	0	1
15	51	10.000000000000009	1	0	0	0	1
53	55	10.000000000000011	1	0	0	0	1
57	59	10.000000000000004	1	0	0	0	1
61	63	10	1	0	0	0	1
65	67	9.9999999999999947	1	0	0	0	1
69	71	9.9999999999999947	1	0	0	0	1
73	75	9.9999999999999893	1	0	0	0	1
77	79	9.9999999999999964	1	0	0	0	1
81	83	9.9999999999999467	1	0	0	0	1
97	98	180	1	1	0	0	1
98	97	180	1	1	0	0	1
[NumHoles] = 0
[NumBlockLabels] = 33
3.3123699578257932	2.2974344958002946	1	-1	0	35	1	1	0
-3.6458216158066445	1.71987928230938	1	-1	0	155	1	1	0
0.33345165798084975	-4.0173137781096733	1	-1	0	275	1	1	0
-0.33345165798085136	4.0173137781096742	1	-1	0	-85	1	1	0
-3.3123699578257941	-2.2974344958002937	1	-1	0	35	1	1	0
3.6458216158066441	-1.719879282309382	1	-1	0	155	1	1	0
4.3200000000000003	1.1499999999999999	2	-1	0	0	0	1	0
0	0	3	-1	0	0	1	1	0
4.9199999999999999	0.39000000000000001	4	-1	1	0	0	112	0
2.1222500925240695	4.4558449866194385	4	-1	1	0	0	-112	0
-2.79774990747593	4.0658449866194379	4	-1	1	0	0	112	0
-4.9199999999999999	-0.3899999999999994	4	-1	1	0	0	-112	0
-2.1222500925240713	-4.4558449866194367	4	-1	1	0	0	112	0
2.7977499074759313	-4.0658449866194379	4	-1	1	0	0	-112	0
4.4898998383696584	2.0492192272687944	4	-1	2	0	0	-112	0
0.47027401044653683	4.9129769341101666	4	-1	2	0	0	112	0
-4.0196258279231216	2.8637577068413727	4	-1	2	0	0	-112	0
-4.4898998383696584	-2.0492192272687939	4	-1	2	0	0	112	0
-0.4702740104465386	-4.9129769341101657	4	-1	2	0	0	-112	0
4.0196258279231225	-2.8637577068413718	4	-1	2	0	0	112	0
3.5182514923676216	3.4612723724741747	4	-1	3	0	0	112	0
-1.2384240577960579	4.7775313555299608	4	-1	3	0	0	-112	0
-4.7566755501636795	1.3162589830557869	4	-1	3	0	0	112	0
-3.518251492367622	-3.4612723724741743	4	-1	3	0	0	-112	0
1.2384240577960559	-4.7775313555299608	4	-1	3	0	0	112	0
4.7566755501636804	-1.3162589830557854	4	-1	3	0	0	-112	0
3.96	0.35999999999999999	2	-1	0	0	1	1	0
1.6682308546376026	3.6094605989863768	2	-1	0	0	1	1	0
-2.2917691453623972	3.2494605989863774	2	-1	0	0	1	1	0
-3.96	-0.35999999999999949	2	-1	0	0	1	1	0
-1.6682308546376039	-3.6094605989863759	2	-1	0	0	1	1	0
2.2917691453623981	-3.2494605989863765	2	-1	0	0	1	1	0
-0.41999999999999998	5.9199999999999999	3	-1	0	0	0	1	0
